ES12_EXP_POWERS.CSV
Element, Terminal, P(kW), Q(kvar),  P_Normal, Q_Normal, P_Emergency, Q_Emergency
"Line.L_BSB_MT_8921"    ,   1,      -602.1,      -273.4,         0.0,         0.0,         0.0,         0.0
"Line.L_BSB_MT_8921"    ,   2,       602.2,       273.4
"Line.L_BSB_MT_3002"    ,   1,       -39.9,       -18.1,         0.0,         0.0,         0.0,         0.0
"Line.L_BSB_MT_3002"    ,   2,        39.9,        18.1
"Line.L_BSB_MT_3003"    ,   1,      -602.0,      -273.3,         0.0,         0.0,         0.0,         0.0
"Line.L_BSB_MT_3003"    ,   2,       602.1,       273.4
"Line.L_BSB_MT_3008"    ,   1,       120.9,        54.9,         0.0,         0.0,         0.0,         0.0
"Line.L_BSB_MT_3008"    ,   2,      -120.9,       -54.9
"Line.L_BSB_MT_3024"    ,   1,       -39.9,       -18.1,         0.0,         0.0,         0.0,         0.0
"Line.L_BSB_MT_3024"    ,   2,        39.9,        18.1
"Line.L_BSB_MT_7628"    ,   1,       160.2,        72.7,         0.0,         0.0,         0.0,         0.0
"Line.L_BSB_MT_7628"    ,   2,      -160.1,       -72.7
"Line.L_BSB_MT_3131"    ,   1,         0.0,        -0.0,         0.0,         0.0,         0.0,         0.0
"Line.L_BSB_MT_3131"    ,   2,        -0.0,         0.0
"Line.L_BSB_MT_3132"    ,   1,         0.0,        -0.0,         0.0,         0.0,         0.0,         0.0
"Line.L_BSB_MT_3132"    ,   2,        -0.0,         0.0
"Line.L_BSB_MT_3133"    ,   1,         0.0,        -0.0,         0.0,         0.0,         0.0,         0.0
"Line.L_BSB_MT_3133"    ,   2,        -0.0,         0.0
"Line.L_BSB_MT_3134"    ,   1,        24.7,        11.2,         0.0,         0.0,         0.0,         0.0
"Line.L_BSB_MT_3134"    ,   2,       -24.7,       -11.2
"Line.L_BSB_MT_3135"    ,   1,        24.7,        11.2,         0.0,         0.0,         0.0,         0.0
"Line.L_BSB_MT_3135"    ,   2,       -24.7,       -11.2
"Line.L_BSB_MT_3136"    ,   1,        24.7,        11.2,         0.0,         0.0,         0.0,         0.0
"Line.L_BSB_MT_3136"    ,   2,       -24.7,       -11.2
"Line.L_BSB_MT_3137"    ,   1,        16.4,         7.5,         0.0,         0.0,         0.0,         0.0
"Line.L_BSB_MT_3137"    ,   2,       -16.4,        -7.5
"Line.L_BSB_MT_3138"    ,   1,       -16.4,        -7.5,         0.0,         0.0,         0.0,         0.0
"Line.L_BSB_MT_3138"    ,   2,        16.4,         7.5
"Line.L_BSB_MT_3139"    ,   1,        -0.0,         0.0,         0.0,         0.0,         0.0,         0.0
"Line.L_BSB_MT_3139"    ,   2,         0.0,        -0.0
"Line.L_BSB_MT_3144"    ,   1,       120.9,        54.9,         0.0,         0.0,         0.0,         0.0
"Line.L_BSB_MT_3144"    ,   2,      -120.9,       -54.9
"Line.L_BSB_MT_3147"    ,   1,      -601.9,      -273.3,         0.0,         0.0,         0.0,         0.0
"Line.L_BSB_MT_3147"    ,   2,       602.0,       273.3
"Line.L_BSB_MT_3148"    ,   1,      -541.5,      -245.8,         0.0,         0.0,         0.0,         0.0
"Line.L_BSB_MT_3148"    ,   2,       541.6,       245.9
"Line.L_BSB_MT_3149"    ,   1,      -184.2,       -83.6,         0.0,         0.0,         0.0,         0.0
"Line.L_BSB_MT_3149"    ,   2,       184.2,        83.6
"Line.L_BSB_MT_3150"    ,   1,      -346.5,      -157.3,         0.0,         0.0,         0.0,         0.0
"Line.L_BSB_MT_3150"    ,   2,       346.6,       157.3
"Line.L_BSB_MT_3151"    ,   1,       160.2,        72.7,         0.0,         0.0,         0.0,         0.0
"Line.L_BSB_MT_3151"    ,   2,      -160.2,       -72.7
"Line.L_BSB_MT_3153"    ,   1,        24.0,        10.9,         0.0,         0.0,         0.0,         0.0
"Line.L_BSB_MT_3153"    ,   2,       -24.0,       -10.9
"Line.L_BSB_MT_3154"    ,   1,        24.0,        10.9,         0.0,         0.0,         0.0,         0.0
"Line.L_BSB_MT_3154"    ,   2,       -24.0,       -10.9
"Line.L_BSB_MT_3155"    ,   1,        24.0,        10.9,         0.0,         0.0,         0.0,         0.0
"Line.L_BSB_MT_3155"    ,   2,       -24.0,       -10.9
"Line.L_BSB_MT_7818"    ,   1,      -601.8,      -273.2,         0.0,         0.0,         0.0,         0.0
"Line.L_BSB_MT_7818"    ,   2,       601.9,       273.3
"Line.L_BSB_MT_7820"    ,   1,     -1653.5,      -777.8,         0.0,         0.0,         0.0,         0.0
"Line.L_BSB_MT_7820"    ,   2,      1654.2,       778.3
"Line.L_BSB_MT_7821"    ,   1,      -725.2,      -329.6,         0.0,         0.0,         0.0,         0.0
"Line.L_BSB_MT_7821"    ,   2,       725.4,       329.7
"Line.L_BSB_MT_7822"    ,   1,      -724.4,      -329.1,         0.0,         0.0,         0.0,         0.0
"Line.L_BSB_MT_7822"    ,   2,       724.6,       329.2
"Line.L_BSB_MT_7825"    ,   1,     -1687.6,      -794.5,         0.0,         0.0,         0.0,         0.0
"Line.L_BSB_MT_7825"    ,   2,      1688.4,       795.0
"Line.L_BSB_MT_3156"    ,   1,        -0.0,        -0.0,         0.0,         0.0,         0.0,         0.0
"Line.L_BSB_MT_3156"    ,   2,         0.0,         0.0
"Line.L_BSB_MT_3183"    ,   1,      -119.8,       -54.4,         0.0,         0.0,         0.0,         0.0
"Line.L_BSB_MT_3183"    ,   2,       119.8,        54.4
"Line.L_BSB_MT_3197"    ,   1,        24.7,        11.2,         0.0,         0.0,         0.0,         0.0
"Line.L_BSB_MT_3197"    ,   2,       -24.7,       -11.2
"Line.L_BSB_MT_7826"    ,   1,     -1659.8,      -781.5,         0.0,         0.0,         0.0,         0.0
"Line.L_BSB_MT_7826"    ,   2,      1660.5,       781.9
"Line.L_BSB_MT_7827"    ,   1,     -1657.1,      -779.9,         0.0,         0.0,         0.0,         0.0
"Line.L_BSB_MT_7827"    ,   2,      1657.8,       780.3
"Line.L_BSB_MT_7828"    ,   1,     -1692.6,      -797.4,         0.0,         0.0,         0.0,         0.0
"Line.L_BSB_MT_7828"    ,   2,      1693.6,       798.0
"Line.L_BSB_MT_7830"    ,   1,     -1697.1,      -800.1,         0.0,         0.0,         0.0,         0.0
"Line.L_BSB_MT_7830"    ,   2,      1697.8,       800.5
"Line.L_BSB_MT_7831"    ,   1,     -1694.4,      -798.5,         0.0,         0.0,         0.0,         0.0
"Line.L_BSB_MT_7831"    ,   2,      1695.0,       798.9
"Line.L_BSB_MT_7832"    ,   1,     -1700.8,      -802.2,         0.0,         0.0,         0.0,         0.0
"Line.L_BSB_MT_7832"    ,   2,      1701.5,       802.7
"Line.L_BSB_MT_56010"   ,   1,       160.1,        72.7,         0.0,         0.0,         0.0,         0.0
"Line.L_BSB_MT_56010"   ,   2,      -160.1,       -72.7
"Line.L_BSB_MT_56012"   ,   1,        39.9,        18.1,         0.0,         0.0,         0.0,         0.0
"Line.L_BSB_MT_56012"   ,   2,       -39.9,       -18.1
"Line.L_BSB_MT_56013"   ,   1,        39.9,        18.1,         0.0,         0.0,         0.0,         0.0
"Line.L_BSB_MT_56013"   ,   2,       -39.9,       -18.1
"Line.L_BSB_MT_56014"   ,   1,        39.9,        18.1,         0.0,         0.0,         0.0,         0.0
"Line.L_BSB_MT_56014"   ,   2,       -39.9,       -18.1
"Line.L_BSB_MT_56015"   ,   1,        39.9,        18.1,         0.0,         0.0,         0.0,         0.0
"Line.L_BSB_MT_56015"   ,   2,       -39.9,       -18.1
"Line.L_BSB_MT_6796"    ,   1,        -8.2,        -3.7,         0.0,         0.0,         0.0,         0.0
"Line.L_BSB_MT_6796"    ,   2,         8.2,         3.7
"Line.L_BSB_MT_6800"    ,   1,      -119.8,       -54.4,         0.0,         0.0,         0.0,         0.0
"Line.L_BSB_MT_6800"    ,   2,       119.8,        54.4
"Line.L_BSB_MT_7975"    ,   1,        24.7,        11.2,         0.0,         0.0,         0.0,         0.0
"Line.L_BSB_MT_7975"    ,   2,       -24.7,       -11.2
"Line.L_BSB_MT_5696"    ,   1,     -1704.6,      -804.4,         0.0,         0.0,         0.0,         0.0
"Line.L_BSB_MT_5696"    ,   2,      1705.2,       804.8
"Line.L_BSB_MT_8139"    ,   1,         0.0,        -0.0,         0.0,         0.0,         0.0,         0.0
"Line.L_BSB_MT_8139"    ,   2,        -0.0,         0.0
"Line.L_BSB_MT_9323"    ,   1,        79.9,        36.2,         0.0,         0.0,         0.0,         0.0
"Line.L_BSB_MT_9323"    ,   2,       -79.8,       -36.2
"Line.L_BSB_MT_9324"    ,   1,       159.8,        72.5,         0.0,         0.0,         0.0,         0.0
"Line.L_BSB_MT_9324"    ,   2,      -159.8,       -72.5
"Line.L_BSB_MT_5715"    ,   1,     -1703.8,      -804.0,         0.0,         0.0,         0.0,         0.0
"Line.L_BSB_MT_5715"    ,   2,      1704.6,       804.4
"Line.L_BSB_MT_5716"    ,   1,        16.4,         7.5,         0.0,         0.0,         0.0,         0.0
"Line.L_BSB_MT_5716"    ,   2,       -16.4,        -7.5
"Line.L_BSB_MT_5718"    ,   1,       -24.0,       -10.9,         0.0,         0.0,         0.0,         0.0
"Line.L_BSB_MT_5718"    ,   2,        24.0,        10.9
"Line.L_BSB_MT_5722"    ,   1,       -39.9,       -18.1,         0.0,         0.0,         0.0,         0.0
"Line.L_BSB_MT_5722"    ,   2,        39.9,        18.1
"Line.L_BSB_MT_8497"    ,   1,       -39.9,       -18.1,         0.0,         0.0,         0.0,         0.0
"Line.L_BSB_MT_8497"    ,   2,        39.9,        18.1
"Line.L_BSB_MT_8499"    ,   1,      -119.8,       -54.4,         0.0,         0.0,         0.0,         0.0
"Line.L_BSB_MT_8499"    ,   2,       119.8,        54.4
"Line.L_BSB_MT_8501"    ,   1,      -290.3,      -131.8,         0.0,         0.0,         0.0,         0.0
"Line.L_BSB_MT_8501"    ,   2,       290.3,       131.8
"Line.L_BSB_MT_8502"    ,   1,      -306.3,      -139.0,         0.0,         0.0,         0.0,         0.0
"Line.L_BSB_MT_8502"    ,   2,       306.3,       139.1
"Line.L_BSB_MT_8503"    ,   1,      -346.4,      -157.3,         0.0,         0.0,         0.0,         0.0
"Line.L_BSB_MT_8503"    ,   2,       346.5,       157.3
"Line.L_BSB_MT_8504"    ,   1,      -602.2,      -273.4,         0.0,         0.0,         0.0,         0.0
"Line.L_BSB_MT_8504"    ,   2,       602.3,       273.5
"Line.L_BSB_MT_8513"    ,   1,       120.9,        54.9,         0.0,         0.0,         0.0,         0.0
"Line.L_BSB_MT_8513"    ,   2,      -120.9,       -54.9
"Line.L_BSB_MT_8519"    ,   1,      -602.6,      -273.7,         0.0,         0.0,         0.0,         0.0
"Line.L_BSB_MT_8519"    ,   2,       602.7,       273.8
"Line.L_BSB_MT_8520"    ,   1,      -602.5,      -273.6,         0.0,         0.0,         0.0,         0.0
"Line.L_BSB_MT_8520"    ,   2,       602.6,       273.7
"Line.L_BSB_MT_8521"    ,   1,      -602.4,      -273.6,         0.0,         0.0,         0.0,         0.0
"Line.L_BSB_MT_8521"    ,   2,       602.5,       273.6
"Line.L_BSB_MT_8522"    ,   1,      -603.2,      -274.0,         0.0,         0.0,         0.0,         0.0
"Line.L_BSB_MT_8522"    ,   2,       603.3,       274.1
"Line.L_BSB_MT_8523"    ,   1,      -603.1,      -274.0,         0.0,         0.0,         0.0,         0.0
"Line.L_BSB_MT_8523"    ,   2,       603.2,       274.0
"Line.L_BSB_MT_8524"    ,   1,       603.1,       274.0,         0.0,         0.0,         0.0,         0.0
"Line.L_BSB_MT_8524"    ,   2,      -603.0,      -273.9
"Line.L_BSB_MT_8525"    ,   1,      -602.9,      -273.9,         0.0,         0.0,         0.0,         0.0
"Line.L_BSB_MT_8525"    ,   2,       603.0,       273.9
"Line.L_BSB_MT_8526"    ,   1,      -602.8,      -273.8,         0.0,         0.0,         0.0,         0.0
"Line.L_BSB_MT_8526"    ,   2,       602.9,       273.9
"Line.L_BSB_MT_8527"    ,   1,      -602.7,      -273.8,         0.0,         0.0,         0.0,         0.0
"Line.L_BSB_MT_8527"    ,   2,       602.8,       273.8
"Line.L_BSB_MT_8531"    ,   1,     -1654.9,      -778.6,         0.0,         0.0,         0.0,         0.0
"Line.L_BSB_MT_8531"    ,   2,      1655.8,       779.2
"Line.L_BSB_MT_3168"    ,   1,      -290.3,      -131.7,         0.0,         0.0,         0.0,         0.0
"Line.L_BSB_MT_3168"    ,   2,       290.3,       131.8
"Line.L_BSB_MT_3169"    ,   1,        16.0,         7.3,         0.0,         0.0,         0.0,         0.0
"Line.L_BSB_MT_3169"    ,   2,       -16.0,        -7.3
"Line.L_BSB_MT_8532"    ,   1,     -1654.2,      -778.3,         0.0,         0.0,         0.0,         0.0
"Line.L_BSB_MT_8532"    ,   2,      1654.9,       778.6
"Line.L_BSB_MT_8533"    ,   1,     -1652.7,      -777.4,         0.0,         0.0,         0.0,         0.0
"Line.L_BSB_MT_8533"    ,   2,      1653.5,       777.8
"Line.L_BSB_MT_8534"    ,   1,     -1652.0,      -776.9,         0.0,         0.0,         0.0,         0.0
"Line.L_BSB_MT_8534"    ,   2,      1652.7,       777.4
"Line.L_BSB_MT_8535"    ,   1,     -1651.2,      -776.5,         0.0,         0.0,         0.0,         0.0
"Line.L_BSB_MT_8535"    ,   2,      1652.0,       776.9
"Line.L_BSB_MT_8536"    ,   1,      -725.0,      -329.5,         0.0,         0.0,         0.0,         0.0
"Line.L_BSB_MT_8536"    ,   2,       725.2,       329.6
"Line.L_BSB_MT_8537"    ,   1,      -724.8,      -329.3,         0.0,         0.0,         0.0,         0.0
"Line.L_BSB_MT_8537"    ,   2,       725.0,       329.5
"Line.L_BSB_MT_8538"    ,   1,      -724.3,      -329.0,         0.0,         0.0,         0.0,         0.0
"Line.L_BSB_MT_8538"    ,   2,       724.4,       329.1
"Line.L_BSB_MT_8539"    ,   1,      -603.3,      -274.1,         0.0,         0.0,         0.0,         0.0
"Line.L_BSB_MT_8539"    ,   2,       603.4,       274.1
"Line.L_BSB_MT_8544"    ,   1,     -1689.2,      -795.5,         0.0,         0.0,         0.0,         0.0
"Line.L_BSB_MT_8544"    ,   2,      1690.1,       796.0
"Line.L_BSB_MT_8545"    ,   1,     -1688.4,      -795.0,         0.0,         0.0,         0.0,         0.0
"Line.L_BSB_MT_8545"    ,   2,      1689.2,       795.5
"Line.L_BSB_MT_8546"    ,   1,     -1662.1,      -782.8,         0.0,         0.0,         0.0,         0.0
"Line.L_BSB_MT_8546"    ,   2,      1662.9,       783.3
"Line.L_BSB_MT_8547"    ,   1,     -1661.3,      -782.4,         0.0,         0.0,         0.0,         0.0
"Line.L_BSB_MT_8547"    ,   2,      1662.1,       782.8
"Line.L_BSB_MT_8548"    ,   1,     -1660.5,      -781.9,         0.0,         0.0,         0.0,         0.0
"Line.L_BSB_MT_8548"    ,   2,      1661.3,       782.4
"Line.L_BSB_MT_8549"    ,   1,     -1658.5,      -780.7,         0.0,         0.0,         0.0,         0.0
"Line.L_BSB_MT_8549"    ,   2,      1659.1,       781.1
"Line.L_BSB_MT_8550"    ,   1,     -1657.8,      -780.3,         0.0,         0.0,         0.0,         0.0
"Line.L_BSB_MT_8550"    ,   2,      1658.5,       780.7
"Line.L_BSB_MT_8551"    ,   1,     -1656.5,      -779.5,         0.0,         0.0,         0.0,         0.0
"Line.L_BSB_MT_8551"    ,   2,      1657.1,       779.9
"Line.L_BSB_MT_8552"    ,   1,     -1655.8,      -779.2,         0.0,         0.0,         0.0,         0.0
"Line.L_BSB_MT_8552"    ,   2,      1656.5,       779.5
"Line.L_BSB_MT_8553"    ,   1,     -1693.6,      -798.0,         0.0,         0.0,         0.0,         0.0
"Line.L_BSB_MT_8553"    ,   2,      1694.4,       798.5
"Line.L_BSB_MT_8554"    ,   1,     -1691.7,      -796.9,         0.0,         0.0,         0.0,         0.0
"Line.L_BSB_MT_8554"    ,   2,      1692.6,       797.4
"Line.L_BSB_MT_8555"    ,   1,     -1690.9,      -796.4,         0.0,         0.0,         0.0,         0.0
"Line.L_BSB_MT_8555"    ,   2,      1691.7,       796.9
"Line.L_BSB_MT_8556"    ,   1,     -1690.1,      -796.0,         0.0,         0.0,         0.0,         0.0
"Line.L_BSB_MT_8556"    ,   2,      1690.9,       796.4
"Line.L_BSB_MT_8557"    ,   1,     -1699.6,      -801.5,         0.0,         0.0,         0.0,         0.0
"Line.L_BSB_MT_8557"    ,   2,      1700.0,       801.8
"Line.L_BSB_MT_8558"    ,   1,     -1698.5,      -800.9,         0.0,         0.0,         0.0,         0.0
"Line.L_BSB_MT_8558"    ,   2,      1699.2,       801.3
"Line.L_BSB_MT_8559"    ,   1,     -1696.4,      -799.7,         0.0,         0.0,         0.0,         0.0
"Line.L_BSB_MT_8559"    ,   2,      1697.1,       800.1
"Line.L_BSB_MT_8560"    ,   1,     -1695.7,      -799.3,         0.0,         0.0,         0.0,         0.0
"Line.L_BSB_MT_8560"    ,   2,      1696.4,       799.7
"Line.L_BSB_MT_8561"    ,   1,     -1695.0,      -798.9,         0.0,         0.0,         0.0,         0.0
"Line.L_BSB_MT_8561"    ,   2,      1695.7,       799.3
"Line.L_BSB_MT_8562"    ,   1,     -1705.8,      -805.2,         0.0,         0.0,         0.0,         0.0
"Line.L_BSB_MT_8562"    ,   2,      1707.0,       805.8
"Line.L_BSB_MT_8563"    ,   1,     -1705.2,      -804.8,         0.0,         0.0,         0.0,         0.0
"Line.L_BSB_MT_8563"    ,   2,      1705.8,       805.2
"Line.L_BSB_MT_8564"    ,   1,     -1703.1,      -803.5,         0.0,         0.0,         0.0,         0.0
"Line.L_BSB_MT_8564"    ,   2,      1703.8,       804.0
"Line.L_BSB_MT_8565"    ,   1,     -1702.3,      -803.1,         0.0,         0.0,         0.0,         0.0
"Line.L_BSB_MT_8565"    ,   2,      1703.1,       803.5
"Line.L_BSB_MT_8566"    ,   1,     -1701.5,      -802.7,         0.0,         0.0,         0.0,         0.0
"Line.L_BSB_MT_8566"    ,   2,      1702.3,       803.1
"Line.L_BSB_MT_8567"    ,   1,     -1700.0,      -801.8,         0.0,         0.0,         0.0,         0.0
"Line.L_BSB_MT_8567"    ,   2,      1700.8,       802.2
"Line.L_BSB_MT_3170"    ,   1,      -306.3,      -139.0,         0.0,         0.0,         0.0,         0.0
"Line.L_BSB_MT_3170"    ,   2,       306.3,       139.0
"Line.L_BSB_MT_3171"    ,   1,      -346.4,      -157.3,         0.0,         0.0,         0.0,         0.0
"Line.L_BSB_MT_3171"    ,   2,       346.4,       157.3
"Line.L_BSB_MT_7209"    ,   1,        60.1,        27.3,         0.0,         0.0,         0.0,         0.0
"Line.L_BSB_MT_7209"    ,   2,       -60.1,       -27.3
"Line.L_BSB_MT_7210"    ,   1,      -346.4,      -157.2,         0.0,         0.0,         0.0,         0.0
"Line.L_BSB_MT_7210"    ,   2,       346.4,       157.3
"Line.L_BSB_MT_4923"    ,   1,        24.7,        11.2,         0.0,         0.0,         0.0,         0.0
"Line.L_BSB_MT_4923"    ,   2,       -24.7,       -11.2
"Line.L_BSB_MT_4924"    ,   1,        -8.2,        -3.7,         0.0,         0.0,         0.0,         0.0
"Line.L_BSB_MT_4924"    ,   2,         8.2,         3.7
"Line.L_BSB_MT_4925"    ,   1,        -0.0,         0.0,         0.0,         0.0,         0.0,         0.0
"Line.L_BSB_MT_4925"    ,   2,         0.0,        -0.0
"Line.L_BSB_MT_4927"    ,   1,       120.9,        54.9,         0.0,         0.0,         0.0,         0.0
"Line.L_BSB_MT_4927"    ,   2,      -120.9,       -54.9
"Line.L_BSB_MT_4928"    ,   1,        60.1,        27.3,         0.0,         0.0,         0.0,         0.0
"Line.L_BSB_MT_4928"    ,   2,       -60.1,       -27.3
"Line.L_BSB_MT_4929"    ,   1,      -357.2,      -162.2,         0.0,         0.0,         0.0,         0.0
"Line.L_BSB_MT_4929"    ,   2,       357.3,       162.2
"Line.L_BSB_MT_4930"    ,   1,        24.0,        10.9,         0.0,         0.0,         0.0,         0.0
"Line.L_BSB_MT_4930"    ,   2,       -24.0,       -10.9
"Line.L_BSB_MT_4934"    ,   1,      -279.6,      -126.9,         0.0,         0.0,         0.0,         0.0
"Line.L_BSB_MT_4934"    ,   2,       279.6,       126.9
"Line.L_BSB_MT_4935"    ,   1,      -346.3,      -157.2,         0.0,         0.0,         0.0,         0.0
"Line.L_BSB_MT_4935"    ,   2,       346.4,       157.2
"Line.L_BSB_MT_8671"    ,   1,     -1699.2,      -801.3,         0.0,         0.0,         0.0,         0.0
"Line.L_BSB_MT_8671"    ,   2,      1699.6,       801.5
"Line.L_BSB_MT_8672"    ,   1,     -1697.8,      -800.5,         0.0,         0.0,         0.0,         0.0
"Line.L_BSB_MT_8672"    ,   2,      1698.5,       800.9
"Line.L_BSB_MT_8673"    ,   1,     -1659.1,      -781.1,         0.0,         0.0,         0.0,         0.0
"Line.L_BSB_MT_8673"    ,   2,      1659.8,       781.5
"Line.L_BSB_MT_8674"    ,   1,      -724.6,      -329.2,         0.0,         0.0,         0.0,         0.0
"Line.L_BSB_MT_8674"    ,   2,       724.8,       329.3
"Line.L_BSB_MT_8683"    ,   1,        10.7,         4.8,         0.0,         0.0,         0.0,         0.0
"Line.L_BSB_MT_8683"    ,   2,       -10.7,        -4.8
"Line.L_BSB_MT_8684"    ,   1,      -119.8,       -54.4,         0.0,         0.0,         0.0,         0.0
"Line.L_BSB_MT_8684"    ,   2,       119.8,        54.4
"Line.L_BSB_MT_8765"    ,   1,      -602.3,      -273.5,         0.0,         0.0,         0.0,         0.0
"Line.L_BSB_MT_8765"    ,   2,       602.4,       273.6
"Line.L_BSB_MT_8774"    ,   1,      1707.2,       805.9,         0.0,         0.0,         0.0,         0.0
"Line.L_BSB_MT_8774"    ,   2,     -1707.0,      -805.8
"Line.L_BSB_MT_6000"    ,   1,        -0.0,         0.0,         0.0,         0.0,         0.0,         0.0
"Line.L_BSB_MT_6000"    ,   2,         0.0,        -0.0
"Line.L_BSB_MT_6074"    ,   1,        24.7,        11.2,         0.0,         0.0,         0.0,         0.0
"Line.L_BSB_MT_6074"    ,   2,       -24.7,       -11.2
"Line.L_BSB_MT_6078"    ,   1,       -39.9,       -18.1,         0.0,         0.0,         0.0,         0.0
"Line.L_BSB_MT_6078"    ,   2,        39.9,        18.1
"Line.L_TRANSICAO_16"   ,   1,       346.5,       157.3,         0.0,         0.0,         0.0,         0.0
"Line.L_TRANSICAO_16"   ,   2,      -346.5,      -157.3
"Line.L_TR_SUB_MT_FIC_522",   1,       650.6,       321.7,         0.0,         0.0,         0.0,         0.0
"Line.L_TR_SUB_MT_FIC_522",   2,      -650.6,      -321.7
"Line.L_TR_SUB_MT_FIC_523",   1,       273.5,       124.1,         0.0,         0.0,         0.0,         0.0
"Line.L_TR_SUB_MT_FIC_523",   2,      -273.5,      -124.1
"Line.L_TR_SUB_MT_FIC_2638",   1,       273.5,       124.1,         0.0,         0.0,         0.0,         0.0
"Line.L_TR_SUB_MT_FIC_2638",   2,      -273.5,      -124.1
"Line.L_TR_FIC_GER_39"  ,   1,      1751.3,       831.7,         0.0,         0.0,         0.0,         0.0
"Line.L_TR_FIC_GER_39"  ,   2,     -1750.2,      -831.1
"Line.L_65635219"       ,   1,      1750.2,       831.1,         0.0,         0.0,         0.0,         0.0
"Line.L_65635219"       ,   2,     -1749.4,      -830.6
"Line.L_65635220"       ,   1,      1749.4,       830.6,         0.0,         0.0,         0.0,         0.0
"Line.L_65635220"       ,   2,     -1749.2,      -830.4
"Line.L_65635221"       ,   1,      1749.2,       830.4,         0.0,         0.0,         0.0,         0.0
"Line.L_65635221"       ,   2,     -1747.9,      -829.7
"Line.L_65635222"       ,   1,      1747.9,       829.7,         0.0,         0.0,         0.0,         0.0
"Line.L_65635222"       ,   2,     -1746.6,      -828.9
"Line.L_65635223"       ,   1,      1746.6,       828.9,         0.0,         0.0,         0.0,         0.0
"Line.L_65635223"       ,   2,     -1745.5,      -828.3
"Line.L_65635224"       ,   1,      1745.5,       828.3,         0.0,         0.0,         0.0,         0.0
"Line.L_65635224"       ,   2,     -1744.5,      -827.7
"Line.L_65635225"       ,   1,      1744.5,       827.7,         0.0,         0.0,         0.0,         0.0
"Line.L_65635225"       ,   2,     -1743.4,      -827.0
"Line.L_65635226"       ,   1,      1743.4,       827.0,         0.0,         0.0,         0.0,         0.0
"Line.L_65635226"       ,   2,     -1742.3,      -826.4
"Line.L_65635227"       ,   1,      1742.3,       826.4,         0.0,         0.0,         0.0,         0.0
"Line.L_65635227"       ,   2,     -1741.2,      -825.8
"Line.L_65635228"       ,   1,      1741.2,       825.8,         0.0,         0.0,         0.0,         0.0
"Line.L_65635228"       ,   2,     -1740.4,      -825.3
"Line.L_65635229"       ,   1,      1740.4,       825.3,         0.0,         0.0,         0.0,         0.0
"Line.L_65635229"       ,   2,     -1739.3,      -824.7
"Line.L_65635230"       ,   1,      1739.3,       824.7,         0.0,         0.0,         0.0,         0.0
"Line.L_65635230"       ,   2,     -1738.4,      -824.2
"Line.L_65635231"       ,   1,      1738.4,       824.2,         0.0,         0.0,         0.0,         0.0
"Line.L_65635231"       ,   2,     -1737.6,      -823.7
"Line.L_65635232"       ,   1,      1737.6,       823.7,         0.0,         0.0,         0.0,         0.0
"Line.L_65635232"       ,   2,     -1735.7,      -822.6
"Line.L_65635233"       ,   1,      1735.7,       822.6,         0.0,         0.0,         0.0,         0.0
"Line.L_65635233"       ,   2,     -1733.7,      -821.4
"Line.L_65635234"       ,   1,      1733.7,       821.4,         0.0,         0.0,         0.0,         0.0
"Line.L_65635234"       ,   2,     -1732.2,      -820.5
"Line.L_65635235"       ,   1,      1732.2,       820.5,         0.0,         0.0,         0.0,         0.0
"Line.L_65635235"       ,   2,     -1731.2,      -820.0
"Line.L_65635236"       ,   1,      1731.2,       820.0,         0.0,         0.0,         0.0,         0.0
"Line.L_65635236"       ,   2,     -1729.8,      -819.1
"Line.L_65635237"       ,   1,      1729.8,       819.1,         0.0,         0.0,         0.0,         0.0
"Line.L_65635237"       ,   2,     -1728.4,      -818.3
"Line.L_65635238"       ,   1,      1728.4,       818.3,         0.0,         0.0,         0.0,         0.0
"Line.L_65635238"       ,   2,     -1726.9,      -817.4
"Line.L_65635239"       ,   1,      1726.9,       817.4,         0.0,         0.0,         0.0,         0.0
"Line.L_65635239"       ,   2,     -1725.4,      -816.6
"Line.L_65635240"       ,   1,      1725.4,       816.6,         0.0,         0.0,         0.0,         0.0
"Line.L_65635240"       ,   2,     -1724.2,      -815.9
"Line.L_65635241"       ,   1,      1724.2,       815.9,         0.0,         0.0,         0.0,         0.0
"Line.L_65635241"       ,   2,     -1722.7,      -815.0
"Line.L_65635242"       ,   1,      1722.7,       815.0,         0.0,         0.0,         0.0,         0.0
"Line.L_65635242"       ,   2,     -1721.1,      -814.1
"Line.L_65635243"       ,   1,      1721.1,       814.1,         0.0,         0.0,         0.0,         0.0
"Line.L_65635243"       ,   2,     -1719.9,      -813.4
"Line.L_65635244"       ,   1,      1719.9,       813.4,         0.0,         0.0,         0.0,         0.0
"Line.L_65635244"       ,   2,     -1718.5,      -812.6
"Line.L_65635245"       ,   1,      1718.5,       812.6,         0.0,         0.0,         0.0,         0.0
"Line.L_65635245"       ,   2,     -1717.1,      -811.7
"Line.L_65635246"       ,   1,      1717.1,       811.7,         0.0,         0.0,         0.0,         0.0
"Line.L_65635246"       ,   2,     -1715.9,      -811.0
"Line.L_65635247"       ,   1,      1715.9,       811.0,         0.0,         0.0,         0.0,         0.0
"Line.L_65635247"       ,   2,     -1714.3,      -810.1
"Line.L_65635248"       ,   1,      1714.3,       810.1,         0.0,         0.0,         0.0,         0.0
"Line.L_65635248"       ,   2,     -1712.5,      -809.1
"Line.L_65635249"       ,   1,      1712.5,       809.1,         0.0,         0.0,         0.0,         0.0
"Line.L_65635249"       ,   2,     -1711.0,      -808.2
"Line.L_65635250"       ,   1,      1711.0,       808.2,         0.0,         0.0,         0.0,         0.0
"Line.L_65635250"       ,   2,     -1709.3,      -807.2
"Line.L_65635251"       ,   1,      1709.3,       807.2,         0.0,         0.0,         0.0,         0.0
"Line.L_65635251"       ,   2,     -1707.5,      -806.1
"Line.L_65474273"       ,   1,         0.0,         0.0,         0.0,         0.0,         0.0,         0.0
"Line.L_65474273"       ,   2,        -0.0,        -0.0
"Line.L_65434284"       ,   1,         0.0,         0.0,         0.0,         0.0,         0.0,         0.0
"Line.L_65434284"       ,   2,        -0.0,        -0.0
"Line.L_65434290"       ,   1,       925.8,       446.8,         0.0,         0.0,         0.0,         0.0
"Line.L_65434290"       ,   2,      -925.7,      -446.7
"Line.L_65434316"       ,   1,       925.7,       446.7,         0.0,         0.0,         0.0,         0.0
"Line.L_65434316"       ,   2,      -925.6,      -446.7
"Line.L_65434319"       ,   1,       925.6,       446.7,         0.0,         0.0,         0.0,         0.0
"Line.L_65434319"       ,   2,      -925.4,      -446.6
"Line.L_65434321"       ,   1,       925.4,       446.6,         0.0,         0.0,         0.0,         0.0
"Line.L_65434321"       ,   2,      -925.0,      -446.3
"Line.L_65434326"       ,   1,       925.0,       446.3,         0.0,         0.0,         0.0,         0.0
"Line.L_65434326"       ,   2,      -924.5,      -446.1
"Line.L_65434323"       ,   1,       924.5,       446.1,         0.0,         0.0,         0.0,         0.0
"Line.L_65434323"       ,   2,      -924.2,      -445.9
"Line.L_65434325"       ,   1,       924.2,       445.9,         0.0,         0.0,         0.0,         0.0
"Line.L_65434325"       ,   2,      -924.1,      -445.8
"Line.L_TR_MT_ALIM37"   ,   1,      1707.5,       806.1,         0.0,         0.0,         0.0,         0.0
"Line.L_TR_MT_ALIM37"   ,   2,     -1707.2,      -805.9
"Line.L_TR_SUB_MT_FIC_1810",   1,       650.6,       321.7,         0.0,         0.0,         0.0,         0.0
"Line.L_TR_SUB_MT_FIC_1810",   2,      -650.6,      -321.7
"Line.SW_FP4054"        ,   1,       -39.9,       -18.1,         0.0,         0.0,         0.0,         0.0
"Line.SW_FP4054"        ,   2,        39.9,        18.1
"Line.SW_FA0371"        ,   1,     -1707.2,      -805.9,         0.0,         0.0,         0.0,         0.0
"Line.SW_FA0371"        ,   2,      1707.2,       805.9
"Line.SW_FU0078"        ,   1,      -346.5,      -157.3,         0.0,         0.0,         0.0,         0.0
"Line.SW_FU0078"        ,   2,       346.5,       157.3
"Line.SW_FU0055"        ,   1,       -24.0,       -10.9,         0.0,         0.0,         0.0,         0.0
"Line.SW_FU0055"        ,   2,        24.0,        10.9
"Line.SW_ES12_SES"      ,   1,        -0.0,         0.0,         0.0,         0.0,         0.0,         0.0
"Line.SW_ES12_SES"      ,   2,         0.0,        -0.0
"Line.SW_FZ5597"        ,   1,      -346.3,      -157.2,         0.0,         0.0,         0.0,         0.0
"Line.SW_FZ5597"        ,   2,       346.3,       157.2
"Line.SW_FIC2451"       ,   1,       -39.9,       -18.1,         0.0,         0.0,         0.0,         0.0
"Line.SW_FIC2451"       ,   2,        39.9,        18.1
"Line.SW_FIC524_CHVPRI" ,   1,       650.6,       321.7,         0.0,         0.0,         0.0,         0.0
"Line.SW_FIC524_CHVPRI" ,   2,      -650.6,      -321.7
"Line.SW_FIC525_CHVPRI" ,   1,       273.5,       124.1,         0.0,         0.0,         0.0,         0.0
"Line.SW_FIC525_CHVPRI" ,   2,      -273.5,      -124.1
"Line.SW_FW0953"        ,   1,        -0.0,        -0.0,         0.0,         0.0,         0.0,         0.0
"Line.SW_FW0953"        ,   2,         0.0,         0.0
"Line.SW_FP4037"        ,   1,        -0.0,        -0.0,         0.0,         0.0,         0.0,         0.0
"Line.SW_FP4037"        ,   2,         0.0,         0.0
"Line.SW_FP4050"        ,   1,      -119.8,       -54.4,         0.0,         0.0,         0.0,         0.0
"Line.SW_FP4050"        ,   2,       119.8,        54.4
"Line.SW_FU0023"        ,   1,       -24.7,       -11.2,         0.0,         0.0,         0.0,         0.0
"Line.SW_FU0023"        ,   2,        24.7,        11.2
"Line.SW_FU0077"        ,   1,         0.0,        -0.0,         0.0,         0.0,         0.0,         0.0
"Line.SW_FU0077"        ,   2,        -0.0,         0.0
"Line.SW_FT1650"        ,   1,      -306.3,      -139.0,         0.0,         0.0,         0.0,         0.0
"Line.SW_FT1650"        ,   2,       306.3,       139.0
"Line.SW_FT8368"        ,   1,        -0.0,        -0.0,         0.0,         0.0,         0.0,         0.0
"Line.SW_FT8368"        ,   2,         0.0,         0.0
"Line.SW_FA0364"        ,   1,      -602.1,      -273.4,         0.0,         0.0,         0.0,         0.0
"Line.SW_FA0364"        ,   2,       602.1,       273.4
"Line.SW_FP4032"        ,   1,         0.0,        -0.0,         0.0,         0.0,         0.0,         0.0
"Line.SW_FP4032"        ,   2,        -0.0,         0.0
"Line.SW_FW6913"        ,   1,         0.0,        -0.0,         0.0,         0.0,         0.0,         0.0
"Line.SW_FW6913"        ,   2,        -0.0,         0.0
"Line.SW_FP8565_DP_33884",   1,      -279.6,      -126.9,         0.0,         0.0,         0.0,         0.0
"Line.SW_FP8565_DP_33884",   2,       279.6,       126.9
"Line.SW_FW0115"        ,   1,     -1692.6,      -797.4,         0.0,         0.0,         0.0,         0.0
"Line.SW_FW0115"        ,   2,      1692.6,       797.4
"Line.SW_FA0367"        ,   1,     -1707.0,      -805.8,         0.0,         0.0,         0.0,         0.0
"Line.SW_FA0367"        ,   2,      1707.0,       805.8
"Line.SW_FW3110"        ,   1,         0.0,         0.0,         0.0,         0.0,         0.0,         0.0
"Line.SW_FW3110"        ,   2,        -0.0,        -0.0
"Line.SW_FT1682"        ,   1,        -8.2,        -3.7,         0.0,         0.0,         0.0,         0.0
"Line.SW_FT1682"        ,   2,         8.2,         3.7
"Line.SW_FW3069"        ,   1,       -16.4,        -7.5,         0.0,         0.0,         0.0,         0.0
"Line.SW_FW3069"        ,   2,        16.4,         7.5
"Line.SW_FW0954"        ,   1,      -601.8,      -273.2,         0.0,         0.0,         0.0,         0.0
"Line.SW_FW0954"        ,   2,       601.8,       273.2
"Transformer.T_FF3295"  ,   1,        16.0,         7.3,         0.0,         0.0,         0.0,         0.0
"Transformer.T_FF3295"  ,   2,       -15.8,        -6.7
"Transformer.T_FZ5597"  ,   1,        40.0,        18.1,         0.0,         0.0,         0.0,         0.0
"Transformer.T_FZ5597"  ,   2,       -39.6,       -16.9
"Transformer.T_FP4050"  ,   1,        79.8,        36.2,         0.0,         0.0,         0.0,         0.0
"Transformer.T_FP4050"  ,   2,       -79.1,       -33.7
"Transformer.T_FP4049"  ,   1,        24.0,        10.9,         0.0,         0.0,         0.0,         0.0
"Transformer.T_FP4049"  ,   2,       -23.8,       -10.1
"Transformer.T_FP8080"  ,   1,        39.9,        18.1,         0.0,         0.0,         0.0,         0.0
"Transformer.T_FP8080"  ,   2,       -39.5,       -16.8
"Transformer.T_FP4038"  ,   1,        16.4,         7.5,         0.0,         0.0,         0.0,         0.0
"Transformer.T_FP4038"  ,   2,       -16.3,        -6.9
"Transformer.T_FT8368"  ,   1,        10.7,         4.8,         0.0,         0.0,         0.0,         0.0
"Transformer.T_FT8368"  ,   2,       -10.6,        -4.5
"Transformer.T_FP4041"  ,   1,        60.1,        27.3,         0.0,         0.0,         0.0,         0.0
"Transformer.T_FP4041"  ,   2,       -59.5,       -25.4
"Transformer.T_FF3292"  ,   1,         8.2,         3.7,         0.0,         0.0,         0.0,         0.0
"Transformer.T_FF3292"  ,   2,        -8.1,        -3.5
"Transformer.T_FF3294"  ,   1,       160.1,        72.7,         0.0,         0.0,         0.0,         0.0
"Transformer.T_FF3294"  ,   2,      -158.5,       -67.5
"Transformer.T_FP8565"  ,   1,       159.8,        72.5,         0.0,         0.0,         0.0,         0.0
"Transformer.T_FP8565"  ,   2,      -158.2,       -67.4
"Transformer.T_FT1649"  ,   1,        10.7,         4.8,         0.0,         0.0,         0.0,         0.0
"Transformer.T_FT1649"  ,   2,       -10.5,        -4.5
"Transformer.T_FF3293"  ,   1,       120.9,        54.9,         0.0,         0.0,         0.0,         0.0
"Transformer.T_FF3293"  ,   2,      -119.7,       -51.0
"Transformer.T_FIC6318_SUBT",   1,       650.6,       321.7,       172.5,        85.3,         0.0,         0.0
"Transformer.T_FIC6318_SUBT",   2,      -634.6,      -270.3
"Transformer.T_FIC6319_SUBT",   1,       273.5,       124.1,         0.0,         0.0,         0.0,         0.0
"Transformer.T_FIC6319_SUBT",   2,      -270.7,      -115.3
"Load.L_FF3295"         ,   1,        15.8,         6.7
"Load.L_FZ5597"         ,   1,        39.6,        16.9
"Load.L_FP4050"         ,   1,        79.1,        33.7
"Load.L_FP4049"         ,   1,        23.8,        10.1
"Load.L_FP8080"         ,   1,        39.5,        16.8
"Load.L_FP4038"         ,   1,        16.3,         6.9
"Load.L_FT8368"         ,   1,        10.6,         4.5
"Load.L_FP4041"         ,   1,        59.5,        25.4
"Load.L_FF3292"         ,   1,         8.1,         3.5
"Load.L_FF3294"         ,   1,       158.5,        67.5
"Load.L_FP8565"         ,   1,       158.2,        67.4
"Load.L_FT1649"         ,   1,        10.5,         4.5
"Load.L_FF3293"         ,   1,       119.7,        51.0
"Load.L_FIC6318_SUBT"   ,   1,       634.6,       270.3
"Load.L_FIC6319_SUBT"   ,   1,       270.7,       115.3
